<?xml version="1.0" encoding="UTF-8"?>

<!-- generated on 2023-08-29 23:18:21.563314 by randomTrips.py v1_18_0+0000-03ecfdea036
<configuration>
    <net-file value=".\osm.net.xml.gz"/>
    <route-file value="osm.rou.xml"/>
</configuration>
-->

<!-- generated on 2023-08-29 23:18:21 by Eclipse SUMO duarouter Version 1.18.0
<configuration xmlns:xsi="http://www.w3.org/2001/XMLSchema-instance" xsi:noNamespaceSchemaLocation="http://sumo.dlr.de/xsd/duarouterConfiguration.xsd">

    <input>
        <net-file value=".\osm.net.xml.gz"/>
        <route-files value="trips.trips.xml"/>
    </input>

    <output>
        <output-file value="osm.rou.xml"/>
        <alternatives-output value="NUL"/>
    </output>

    <time>
        <begin value="0"/>
        <end value="3600"/>
    </time>

    <report>
        <no-warnings value="true"/>
        <ignore-errors value="true"/>
        <no-step-log value="true"/>
    </report>

</configuration>
-->

<routes xmlns:xsi="http://www.w3.org/2001/XMLSchema-instance" xsi:noNamespaceSchemaLocation="http://sumo.dlr.de/xsd/routes_file.xsd">
    <vehicle id="0" depart="0.00">
        <route edges="38606818 -38606818 841720725 -38606819#0 952091981#0 952091981#1 952091981#2 798619040#0 798619040#1 955081907 833559124 797744599#0-AddedOnRampEdge 797744599#0 797744599#1 797744599#2 797744598#0 -49090156#2 -49090156#1 303691149#0 303691149#1 303691149#2 303691149#3 25479968-AddedOnRampEdge 25479968 797744594 255284173#0-AddedOnRampEdge 255284173#0 952102354#0 952102354#4 835914650#0 835914650#1 1009472079 302077125 125807797#1 125807797#2 162154275#0 -162154275#0"/>
    </vehicle>
    <vehicle id="1" depart="1.00">
        <route edges="-874458737#1 -874458737#0 987501978#2 49090156#0 49090156#1 49090156#2 49090156#3 49090156#4 25518827#0-AddedOnRampEdge E0 -968690914 -49090156#3"/>
    </vehicle>
    <vehicle id="2" depart="2.00">
        <route edges="49713118 -49713118 -655740449#1 -655740449#0 -987459776 -25562201#16 -25562201#15 -25562201#14 -25562201#13 -25562201#12 -25562201#11 -25562201#10 -25562201#9 -25562201#8 -25562201#7 -25562201#6 -25562201#4 -25562201#3 -25562201#2 -25562201#1 -25562201#0 -655740447 -655740448#2 25562174#0 290734565#0 373794022#0 365521663 380049791#0 373794020#0 -952103207 -90746177#0 -38655604 -38655603#1 38655603#1 38655604"/>
    </vehicle>
    <vehicle id="3" depart="3.00">
        <route edges="952097489#1 -874458737#0 303691149#2 303691149#3 25479968-AddedOnRampEdge 25479968 797744594 255284173#0-AddedOnRampEdge 255284173#0 952102354#0 952102354#4 835914650#0 835914650#1 1009472079 1009472078#0 253550686#0 253550686#0-AddedOffRampEdge 253550686#2 253550686#3 955376375#0 373794020#0 373794020#4 655740448#0 655740447 25562201#0 25562201#1 25562201#2 25562201#3 25562201#4 25562201#6 25562201#7 25562201#8 25562201#9 25562201#10 25562201#11 25562201#12 25562201#13 25562201#14 25562201#15 25562201#16 987459776 655740449#0 655740449#1 655740449#2 655740449#3 655740449#4 655740449#5 655740449#6 49713117 -25562204#21"/>
    </vehicle>
    <vehicle id="4" depart="4.00">
        <route edges="125947335#0 125947335#1 955081906 999254353 999254365#1 999254365#2 38691897 251407889#0 -183715367"/>
    </vehicle>
    <vehicle id="5" depart="5.00">
        <route edges="-49090156#3 -49090156#2 -49090156#1 303691149#0 303691149#1 303691149#2 303691149#3 25479968-AddedOnRampEdge 25479968 797744594 255284173#0-AddedOnRampEdge 255284173#0 952102354#0 952102354#4 835914650#0 835914650#1 1009472079 1009472078#0 253550686#0 253550686#0-AddedOffRampEdge 253550686#2 253550686#3 955376375#0 373794020#0 373794020#4 655740448#0 655740447 25562201#0 25562201#1 25562201#2 25562201#3 25562201#4 25562201#6 25562201#7 25562201#8 25562201#9 25562201#10 25562201#11 25562201#12 25562201#13 25562201#14 25562201#15 25562201#16"/>
    </vehicle>
    <vehicle id="6" depart="6.00">
        <route edges="-162154275#1 162154275#1 162154275#2 38691694#1 38691694#2 38691694#3 1009472079 1009472078#0 -798942045#2 -999254366 -90746167#3 -90746167#2 -38691656#6 -38691656#5 -38691656#3"/>
    </vehicle>
    <vehicle id="7" depart="7.00">
        <route edges="38655596 253324999#3 -987501966 25562212 25562201#0 25562201#1 25562201#2 25562201#3 25562201#4 25562201#6 25562201#7 25562201#8 25562201#9 25562201#10 25562201#11 25562201#12 25562201#13 25562201#14 25562201#15 25562201#16 987459776 655740449#0 655740449#1 655740449#2 655740449#3 655740449#4 655740449#5 655740449#6 655740449#7 49713108 25562204#23"/>
    </vehicle>
    <vehicle id="8" depart="8.00">
        <route edges="-49713109 655740449#9 655740449#10 655740449#11 25518786#0 952091981#0 952091981#1 952091981#2 798619040#0 798619040#1 955081907 833559124 797744599#0-AddedOnRampEdge 797744599#0 797744599#1 797744599#2 797744598#0 -49090156#2 -49090156#1 303691149#0 303691149#1 303691149#2 303691149#3 25479968-AddedOnRampEdge 25479968 797744594 255284173#0-AddedOnRampEdge 255284173#0 952102354#0 952102354#4 835914650#0 835914650#1 1009472079 302077125"/>
    </vehicle>
    <vehicle id="9" depart="9.00">
        <route edges="848718052 125814597 987501981 125813716 -125813714 -987501982 125812395 955081905 49234821 987501979 833559126 125813713#0 -125813713#0"/>
    </vehicle>
    <vehicle id="10" depart="10.00">
        <route edges="841705340#1 -38606818 841720725 -38606819#0 952091981#0 952091981#1 952091981#2 798619040#0 798619040#1 955081907 833559124 797744599#0-AddedOnRampEdge 797744599#0 797744599#1 797744599#2 797744598#0 -49090156#2 -49090156#1 303691149#0 303691149#1 303691149#2 303691149#3 25479968-AddedOnRampEdge 25479968 797744594 255284173#0-AddedOnRampEdge 255284173#0 952102354#0 952102354#4 835914650#0 835914650#1 1009472079 302077125 125807797#1 125807797#2 125807797#3 38691696#0"/>
    </vehicle>
    <vehicle id="11" depart="11.00">
        <route edges="-958823495#2 -958823495#1 -958823495#0 952091981#2 25518823 655740452#0 655740452#1 655740451#0 655740451#1 951261278#0 91022463#0 951261275 -655740449#11 -655740449#10 -655740449#9 -655740449#8 -655740449#7 -655740449#6 -655740449#5 -655740449#4 -655740449#3 -655740449#2 -655740449#1 -655740449#0 -987459776 -25562201#16 -90746176#1 -38606764"/>
    </vehicle>
    <vehicle id="12" depart="12.00">
        <route edges="972943389 -972943389 38606814#0 -987459776 798619042 -798619043 -972943393 -290734563#3 -290734563#2 -38655606 -253324999#1 -952103206"/>
    </vehicle>
    <vehicle id="13" depart="13.00">
        <route edges="-25562204#24 -25562204#23 -25562204#22 -25562204#21 -25562204#20 -25562204#19 -25562204#18 -25562204#17 -25562204#16 -25562204#15 -25562204#14 -25562204#13 -25562204#12 -25562204#11 -25562204#10 -25562204#9 -25562204#8 -25562204#7 -25562204#6 -25562204#5 -25562204#4"/>
    </vehicle>
    <vehicle id="14" depart="14.00">
        <route edges="90746177#1 373794020#4 655740448#0 655740447 25562201#0 25562201#1 25562201#2 25562201#3 25562201#4 25562201#6 25562201#7 25562201#8 25562201#9 38333192#1"/>
    </vehicle>
    <vehicle id="15" depart="15.00">
        <route edges="841705340#1 -38606818 841720725 -38606819#0 952091981#0 952091981#1 952091981#2 798619040#0 798619040#1 49234815 125947335#0 125947335#1 955081906 999254353 254304449 -987501980 -125813714 -987501982 125812395 955081905 49234822"/>
    </vehicle>
    <vehicle id="16" depart="16.00">
        <route edges="25562204#26 798619041 25518786#0 952091981#0 952091981#1 952091981#2 798619040#0 798619040#1 955081907 833559124 797744599#0-AddedOnRampEdge 797744599#0 797744599#1 797744599#2 797744598#0 -49090156#2 -49090156#1 303691149#0 303691149#1 987501978#2"/>
    </vehicle>
    <vehicle id="17" depart="17.00">
        <route edges="-999254366 956961871 798942045#0 253550686#0 253550686#0-AddedOffRampEdge 253550686#2 253550686#3 955376375#0 373794020#0 373794020#4 655740448#0 655740447 25562201#0 25562201#1 25562201#2 -255310979 -38606675 25562204#4"/>
    </vehicle>
    <vehicle id="18" depart="18.00">
        <route edges="90746167#1 90746167#3 956961871 798942045#0 253550686#0 253550686#0-AddedOffRampEdge 253550686#2 253550686#3 955376375#0 373794020#0 373794020#4 655740448#0 655740447 25562201#0 25562201#1 25562201#2 25562201#3 25562201#4 25562201#6 25562201#7 -38606682 38606682"/>
    </vehicle>
    <vehicle id="19" depart="19.00">
        <route edges="91022458#3 855238913 -91022458#2 38698804#1 855240842 797744595#2 251407883#0 251407883#1 999254364 254304464 255284173#0-AddedOnRampEdge 255284173#0 952102354#0 952102354#4 835914650#0 835914650#1 1009472079 1009472078#0 253550686#0 253550686#0-AddedOffRampEdge 253550686#2 253550686#3 955376375#0 373794020#0 -952103207 -90746177#0 276902064#0 276902064#1"/>
    </vehicle>
    <vehicle id="20" depart="20.00">
        <route edges="38698804#1 855240842 797744595#2 251407883#0 251407883#1 999254364 254304464 255284173#0-AddedOnRampEdge 255284173#0 952102354#0 952102354#4 835914650#0 835914650#1 1009472079 1009472078#0 253550686#0 253550686#0-AddedOffRampEdge 253550686#2 253550686#3 955376375#0 373794020#0 373794020#4 655740448#0 655740447 25562201#0 25562201#1 25562201#2 25562201#3 25562201#4 25562201#6 25562201#7 25562201#8 25562201#9 25562201#10 -25562201#10"/>
    </vehicle>
    <vehicle id="21" depart="21.00">
        <route edges="-49713116 -655740449#5 -655740449#4 -655740449#3 -655740449#2 -655740449#1 -655740449#0 -987459776 798619042 -798619043 -972943393 -1049729600 -90746167#3"/>
    </vehicle>
    <vehicle id="22" depart="22.00">
        <route edges="-25562204#17 25562204#17 25562204#18 25562204#19 25562204#20 -49713116"/>
    </vehicle>
    <vehicle id="23" depart="23.00">
        <route edges="-25562204#6 38606683 25562201#7 25562201#8 25562201#9 25562201#10 25562201#11 25562201#12 25562201#13 25562201#14 25562201#15 25562201#16 987459776 655740449#0 655740449#1 655740449#2 655740449#3 655740449#4 655740449#5 655740449#6 655740449#7 655740449#8 655740449#9 655740449#10 655740449#11 25518786#0 952091981#0 952091981#1 952091981#2 798619040#0 798619040#1 955081907 833559124 797744599#0-AddedOnRampEdge 797744599#0 797744599#1 797744599#2 797744598#0 -49090156#2 -49090156#1 303691149#0 303691149#1 952097489#1 -874458737#0"/>
    </vehicle>
    <vehicle id="24" depart="24.00">
        <route edges="38606815 -798619043 -972943393 -1049729600 -90746167#3 -90746167#2 -38691656#6 -38691656#5 -38691656#3 -968410233"/>
    </vehicle>
    <vehicle id="25" depart="25.00">
        <route edges="-972943393 -1049729600 -90746167#3 -90746167#2 -959017279 38606812#8 38606812#11 -251407889#0 254304460 125813710#0 999254364 254304464 255284173#0-AddedOnRampEdge 255284173#0 952102354#0 952102354#4 835914650#0 835914650#1 1009472079 302077125 125807797#1 125807797#2 162154275#0 -38691697"/>
    </vehicle>
    <vehicle id="26" depart="26.00">
        <route edges="-855238913 -91022458#3 -91022458#2 -91022458#0 964988266"/>
    </vehicle>
    <vehicle id="27" depart="27.00">
        <route edges="38655595 38655601#0 38655602#0 38655602#1 90746177#0 90746177#1 373794020#4 655740448#0 655740447 25562201#0 25562201#1 25562201#2 -255310979 -38606675 38606675"/>
    </vehicle>
    <vehicle id="28" depart="28.00">
        <route edges="-38606817 38606817 -38606818 841720725 -38606819#0 952091981#0 952091981#1 952091981#2 798619040#0 798619040#1 49234815 125947335#0 125947335#1 955081906 999254353 254304449 -987501980 -125813714 -987501982 125812395 955081905 49234822"/>
    </vehicle>
    <vehicle id="29" depart="29.00">
        <route edges="-38606809 841705340#1 -38606818 841720725 -38606819#0 952091981#0 952091981#1 952091981#2 798619040#0 798619040#1 955081907 833559124 797744599#0-AddedOnRampEdge 797744599#0 797744599#1 797744599#2 797744598#0 -49090156#2 -49090156#1 303691149#0 303691149#1 952097489#1 874458737#1 938547225#0 938547225#1 -968690921#1"/>
    </vehicle>
    <vehicle id="30" depart="30.00">
        <route edges="999254376#0 999254376#1 125948399 855738968 -38331442#1 -999254377 999254363#2 25479968 797744594 255284173#0-AddedOnRampEdge 255284173#0 952102354#0 952102354#4 835914650#0 835914650#1 1009472079 1009472078#0 253550686#0 253550686#0-AddedOffRampEdge 253550686#2 253550686#3 955376375#0 373794020#0 373794020#4 655740448#0 655740447 25562201#0 25562201#1 25562201#2 25562201#3 25562201#4 25562201#6 25562201#7 25562201#8 25562201#9 25562201#10 25562201#11 25562201#12 25562201#13 -38606687#1 38606764"/>
    </vehicle>
    <vehicle id="31" depart="31.00">
        <route edges="274699798 833559127 125812393 274699802 797744596 987501979 833559125 849657197 938547224 987501982 125813714 987501980 251407886 49234817 999254353 999254365#1 999254365#2 38691897 251407889#0 -183715367 -968410230 38691656#4 38691656#6"/>
    </vehicle>
    <vehicle id="32" depart="32.00">
        <route edges="90746176#0 90746176#1 25562201#16 987459776 655740449#0 655740449#1 655740449#2 655740449#3 655740449#4 655740449#5 655740449#6 655740449#7 655740449#8 655740449#9 655740449#10 655740449#11 25518786#0 952091981#0 952091981#1 952091981#2 25518823 655740452#0 655740452#1"/>
    </vehicle>
    <vehicle id="33" depart="33.00">
        <route edges="-49713117 655740449#7 655740449#8 655740449#9 655740449#10 655740449#11 25518786#0 952091981#0 952091981#1 952091981#2 798619040#0 798619040#1 955081907 833559124 797744599#0-AddedOnRampEdge 797744599#0 797744599#1 797744599#2 797744598#0 -49090156#2 -49090156#1 303691149#0 303691149#1 303691149#2 -91022469#3 -183715382"/>
    </vehicle>
    <vehicle id="34" depart="34.00">
        <route edges="-91022458#3 -91022458#2 38698804#1 855240842 797744595#2 251407883#0 251407883#1 999254364 254304464 255284173#0-AddedOnRampEdge 255284173#0 952102354#0 952102354#4 835914650#0 835914650#1 1009472079 1009472078#0 253550686#0 253550686#0-AddedOffRampEdge 253550686#2 253550686#3 955376375#0 373794020#0 373794020#4 655740448#0 655740447 25562201#0 25562201#1 25562201#2 25562201#3 25562201#4 25562201#6 25562201#7 25562201#8 25562201#9 25562201#10 25562201#11 25562201#12 25562201#13 25562201#14 25562201#15 25562201#16 798619042 972943391 972943390 -972943389 -90746188#1 -90746188#0 -38606809 -841705340#0"/>
    </vehicle>
    <vehicle id="35" depart="35.00">
        <route edges="-38698717 -964988266 91022458#0 38698804#1 855240842 797744595#2 833559128 833559127 125812393 274699802 797744596 987501979 833559126 125813713#0 125813713#1 125813713#3 125813713#4 303691153 49090156#0 49090156#1 49090156#2 968690915#1"/>
    </vehicle>
    <vehicle id="36" depart="36.00">
        <route edges="951259665 -90746190#3 -90746190#1 90746163#0 90746163#1 951261275 951261274#0 951261274#1 951261274#2 -90746191#1"/>
    </vehicle>
    <vehicle id="37" depart="37.00">
        <route edges="38655601#4 38655601#5 -253324999#0 253325002 253550686#3 955376375#0 373794020#0 373794020#4 25562174#0 290734565#0 373794022#0 987459777#0 1016398182#0 256629185#2 256629185#4 256629185#5 25479947#0 25479947#1 952386531#0 179213209#0 794526579 955370070#0 25479963#0 999254377 -999254377"/>
    </vehicle>
    <vehicle id="38" depart="38.00">
        <route edges="958823494#0 958823494#1 958823495#3 798619040#1 955081907 833559124 797744599#0-AddedOnRampEdge 797744599#0 797744599#1 797744599#2 797744598#0 -49090156#2 -49090156#1 303691149#0 303691149#1 303691149#2 303691149#3 25479968-AddedOnRampEdge 25479968 797744594 255284173#0-AddedOnRampEdge 255284173#0 952102354#0 952102354#4 835914650#0 835914650#1 1009472079 1009472078#0 253550686#0 253550686#0-AddedOffRampEdge 957692177 253324999#0"/>
    </vehicle>
    <vehicle id="39" depart="39.00">
        <route edges="-848718052 987501981 125813716 -125813714 -987501982 125812395 955081905 49234822 -274699802 41920918 797744595#0 797744595#1 797744595#2 251407883#0 251407883#1 999254364 254304464 255284173#0-AddedOnRampEdge 255284173#0 952102354#0 952102354#4 835914650#0 835914650#1 1009472079 1009472078#0 253550686#0 253550686#0-AddedOffRampEdge 253550686#2 253550686#3 955376375#0 373794020#0 373794020#4 655740448#0 655740447 25562201#0 25562201#1 25562201#2 25562201#3 25562201#4 25562201#6 25562201#7 25562201#8 25562201#9 25562201#10 25562201#11 25562201#12 25562201#13 25562201#14 25562201#15 25562201#16 987459776 655740449#0 655740449#1 -655740449#1"/>
    </vehicle>
    <vehicle id="40" depart="40.00">
        <route edges="274699808 855240842 797744595#2 251407883#0 251407883#1 999254364 254304464 255284173#0-AddedOnRampEdge 255284173#0 952102354#0 952102354#4 835914650#0 835914650#1 1009472079 1009472078#0 -798942045#2"/>
    </vehicle>
    <vehicle id="41" depart="41.00">
        <route edges="38333192#0 25562201#10 25562201#11 25562201#12 25562201#13 25562201#14 25562201#15 25562201#16 987459776 655740449#0 655740449#1 655740449#2 655740449#3 655740449#4 655740449#5 655740449#6 655740449#7 655740449#8 655740449#9 655740449#10 655740449#11 25518786#0 38606819#0 952091982"/>
    </vehicle>
    <vehicle id="42" depart="42.00">
        <route edges="125807797#3 38691696#0 38691697 162154275#1 162154275#2 38691694#1 38691694#2 38691694#3 1009472079 1009472078#0 253550686#0 253550686#0-AddedOffRampEdge 253550686#2 253550686#3 955376375#0 373794020#0 373794020#4 655740448#0 655740447 25562201#0 25562201#1 25562201#2 25562201#3 25562201#4 25562201#6 25562201#7 25562201#8 25562201#9 25562201#10 25562201#11 25562201#12 25562201#13 25562201#14 25562201#15 25562201#16 987459776 655740449#0 655740449#1 655740449#2 655740449#3 655740449#4 655740449#5 655740449#6 655740449#7 655740449#8 655740449#9 655740449#10 655740449#11 25518786#0 952091981#0 952091981#1 952091981#2 798619040#0 798619040#1 955081907 833559124 797744599#0-AddedOnRampEdge 797744599#0 797744599#1 797744599#2 797744598#0 -49090156#2 -49090156#1"/>
    </vehicle>
    <vehicle id="43" depart="43.00">
        <route edges="999254424 125948403 999254376#0 999254376#1 125948399 855738968 -38331442#1 -999254377 999254363#2 25479968 797744594 255284173#0-AddedOnRampEdge 255284173#0 952102354#0 952102354#4 835914650#0 835914650#1 1009472079 1009472078#0 253550686#0 253550686#0-AddedOffRampEdge 253550686#2 253550686#3 955376375#0 373794020#0 373794020#4 655740448#0 655740447 25562201#0 25562201#1 25562201#2 25562201#3 25562201#4"/>
    </vehicle>
    <vehicle id="44" depart="44.00">
        <route edges="-25562204#23 -49713108 -655740449#7 -655740449#6 -655740449#5 -655740449#4 -655740449#3 -655740449#2 -655740449#1 -655740449#0 -987459776 -25562201#16 -25562201#15 -25562201#14 -25562201#13 -25562201#12 -25562201#11"/>
    </vehicle>
    <vehicle id="45" depart="45.00">
        <route edges="-274699802 41920918 797744595#0 797744595#1 797744595#2 251407883#0 251407883#1 999254364 254304464 255284173#0-AddedOnRampEdge 255284173#0 952102354#0 952102354#4 835914650#0 835914650#1 1009472079 1009472078#0 253550686#0 253550686#0-AddedOffRampEdge 253550686#2 253550686#3 955376375#0 373794020#0 373794020#4 655740448#0 655740447 25562201#0 25562201#1 25562201#2 25562201#3 25562201#4 25562201#6 25562201#7 25562201#8 25562201#9 25562201#10 25562201#11 25562201#12 -90746173#0 38606762 38606685#2"/>
    </vehicle>
    <vehicle id="46" depart="46.00">
        <route edges="833559124 797744599#0-AddedOnRampEdge 797744599#0 797744599#1 797744599#2 797744598#0 -49090156#2 -49090156#1 303691152 -125813713#4 -125813713#3 -125813713#1 -125813713#0 125813713#0"/>
    </vehicle>
    <vehicle id="47" depart="47.00">
        <route edges="-25562201#7 25562201#7 25562201#8 25562201#9 25562201#10 25562201#11 25562201#12 25562201#13 25562201#14 25562201#15 25562201#16 798619042 972943391 972943390 -972943389"/>
    </vehicle>
    <vehicle id="48" depart="48.00">
        <route edges="999254379#1 -999254379#1 -999254379#0 -38331442#1 -999254377 999254363#2 25479968 797744594 255284173#0-AddedOnRampEdge 255284173#0 952102354#0 952102354#4 835914650#0 835914650#1 1009472079 1009472078#0 253550686#0 253550686#0-AddedOffRampEdge 253550686#2 253550686#3 955376375#0 373794020#0 373794020#4 655740448#0 655740447 25562201#0 25562201#1 25562201#2 25562201#3 25562201#4 25562201#6 25562201#7 25562201#8 25562201#9 25562201#10 25562201#11 25562201#12 25562201#13 630670051 25562204#13"/>
    </vehicle>
    <vehicle id="49" depart="49.00">
        <route edges="987501977 25518827#0-AddedOnRampEdge E0 -968690914 -49090156#3 -49090156#2 -49090156#1 303691149#0 303691149#1 303691149#2 303691149#3 25479968-AddedOnRampEdge 25479968 797744594 255284173#0-AddedOnRampEdge 255284173#0 952102354#0 952102354#4 835914650#0 835914650#1 1009472079 1009472078#0 253550686#0 253550686#0-AddedOffRampEdge 253550686#2 253550686#3 955376375#0 373794020#0 373794020#4 655740448#0 655740447 25562201#0 25562201#1 25562201#2 25562201#3 25562201#4 25562201#6 25562201#7 25562201#8 25562201#9 25562201#10 25562201#11 25562201#12 25562201#13 25562201#14 25562201#15 25562201#16 987459776 655740449#0 655740449#1 655740449#2 655740449#3 655740449#4 655740449#5 655740449#6 655740449#7 655740449#8 655740449#9 655740449#10 655740449#11 951261274#0 951261274#1 951261274#2 -90746191#1 -90746191#0 -90746190#3 90746190#2"/>
    </vehicle>
    <vehicle id="50" depart="50.00">
        <route edges="-125813713#3 125813713#3 125813713#4 303691153 49090156#0 49090156#1 49090156#2 49090156#3"/>
    </vehicle>
    <vehicle id="51" depart="51.00">
        <route edges="38691675#1 -38691675#1 -38691675#0 38691694#2 38691694#3 1009472079 1009472078#0 253550686#0 253550686#0-AddedOffRampEdge 253550686#2 253550686#3 955376375#0 373794020#0 373794020#4 655740448#0 655740447 25562201#0 25562201#1 25562201#2 25562201#3 25562201#4 25562201#6 25562201#7 25562201#8 25562201#9 25562201#10 25562201#11 25562201#12 25562201#13 25562201#14 25562201#15 25562201#16 987459776 655740449#0 655740449#1 655740449#2 49713113 25562204#18"/>
    </vehicle>
    <vehicle id="52" depart="52.00">
        <route edges="-855238913 -91022458#3 -91022458#2 38698804#1 855240842 797744595#2 251407883#0 251407883#1 999254364 254304464 255284173#0-AddedOnRampEdge 255284173#0 952102354#0 952102354#4 835914650#0 835914650#1 1009472079 1009472078#0 253550686#0 253550686#0-AddedOffRampEdge 253550686#2 253550686#3 955376375#0 373794020#0 373794020#4 655740448#0 655740447 25562201#0 25562201#1 25562201#2 25562201#3 25562201#4 25562201#6 25562201#7 25562201#8 25562201#9 25562201#10 25562201#11 25562201#12 25562201#13 25562201#14 38606765"/>
    </vehicle>
    <vehicle id="53" depart="53.00">
        <route edges="-276902064#0 90746177#0 90746177#1 373794020#4 655740448#0 655740447 25562201#0 25562201#1 25562201#2 25562201#3 25562201#4 25562201#6 25562201#7 25562201#8 25562201#9 25562201#10 25562201#11 25562201#12 25562201#13 25562201#14 25562201#15 25562201#16 987459776 655740449#0 655740449#1 655740449#2 655740449#3 655740449#4 655740449#5 655740449#6 655740449#7 655740449#8 655740449#9 655740449#10 655740449#11 25518786#0 952091981#0 952091981#1 952091981#2 798619040#0 798619040#1 955081907 833559124 797744599#0-AddedOnRampEdge 797744599#0 49234824 125947334#0 125947334#2"/>
    </vehicle>
    <vehicle id="54" depart="54.00">
        <route edges="253550686#3 955376375#0 373794020#0 373794020#4 655740448#0 655740447 25562201#0 25562201#1 25562201#2 25562201#3 25562201#4 25562201#6 25562201#7 25562201#8 25562201#9 25562201#10 25562201#11 25562201#12 25562201#13 25562201#14 25562201#15 25562201#16 987459776 655740449#0 655740449#1 655740449#2 655740449#3 655740449#4 655740449#5 655740449#6 655740449#7 655740449#8 655740449#9 655740449#10 655740449#11 25518786#0 952091981#0 952091981#1 952091981#2 798619040#0 798619040#1 955081907 833559124 797744599#0-AddedOnRampEdge 797744599#0 797744599#1 797744599#2 797744598#0 -49090156#2 -49090156#1 303691149#0 303691149#1 952097489#1 874458737#1 938547225#0 938547225#1 -968690921#1 968690921#1"/>
    </vehicle>
    <vehicle id="55" depart="55.00">
        <route edges="951259665 -90746190#3 -90746190#1 90746163#0 90746163#1 951261275 25518786#0 952091981#0 952091981#1 952091981#2 798619040#0 798619040#1 955081907 833559124 797744599#0-AddedOnRampEdge 797744599#0 797744599#1 797744599#2 797744598#0 -49090156#2 -49090156#1 303691149#0 303691149#1 303691149#2 303691149#3 25479968-AddedOnRampEdge 25479968 797744594 255284173#0-AddedOnRampEdge 255284173#0 952102354#0 952102354#4 835914650#0 835914650#1 1009472079 1009472078#0 -798942045#2"/>
    </vehicle>
    <vehicle id="56" depart="56.00">
        <route edges="25562201#8 -25562201#8 -25562201#7 -25562201#6 -25562201#4 -25562201#3 -25562201#2 -25562201#1 -25562201#0 -655740447 -655740448#2 25562174#0 290734565#0 373794022#0 365521663 380049791#0 373794020#0 -952103207 -90746177#0 -38655602#2 -38655602#0 -38655601#0 -836299411#1 -38655601#3"/>
    </vehicle>
    <vehicle id="57" depart="57.00">
        <route edges="958823492 125947335#1 955081906 999254353 999254365#1 999254365#2 38691897 251407889#0 -183715367 -38606812#10 959017279 90746167#1 90746167#3 956961873#0 972943393 38606816 972943390 38623850#0 38623850#1 -38606819#1 -38606819#0 952091981#0 952091981#1 952091981#2 25518823 655740452#0 655740452#1 655740451#0 655740451#1 951261278#0 91022463#0"/>
    </vehicle>
    <vehicle id="58" depart="58.00">
        <route edges="-90746176#1 -38606764 38606764"/>
    </vehicle>
    <vehicle id="59" depart="59.00">
        <route edges="38606685#0 38606685#1 -38606762"/>
    </vehicle>
    <vehicle id="60" depart="60.00">
        <route edges="655740449#8 -655740449#8 -655740449#7 -655740449#6 -655740449#5 -655740449#4 -655740449#3 -655740449#2 -655740449#1 -655740449#0 -987459776 -25562201#16 -25562201#15 -25562201#14 -25562201#13 -25562201#12 -25562201#11 -25562201#10 -25562201#9 -25562201#8 -25562201#7 -25562201#6 -25562201#4 -25562201#3 -25562201#2 -25562201#1 -38606677 25562204#2"/>
    </vehicle>
    <vehicle id="61" depart="61.00">
        <route edges="797744599#0-AddedOnRampEdge 797744599#0 797744599#1 797744599#2 797744598#0 -49090156#2 -49090156#1 303691149#0 303691149#1 303691149#2 303691149#3 25479968-AddedOnRampEdge 25479968 797744594 255284173#0-AddedOnRampEdge 255284173#0 952102354#0 952102354#4 835914650#0 835914650#1 1009472079 1009472078#0 253550686#0 253550686#0-AddedOffRampEdge 253550686#2 253550686#3 955376375#0 373794020#0 373794020#4 655740448#0 655740447 25562201#0 25562201#1 25562201#2 25562201#3 25562201#4 25562201#6 25562201#7 25562201#8 25562201#9 25562201#10 25562201#11 25562201#12 25562201#13 630670051 25562204#13 25562204#14"/>
    </vehicle>
    <vehicle id="62" depart="62.00">
        <route edges="-1009472075 -90746162 951261274#1 951261274#2 951261274#3 835903441 835903440-AddedOnRampEdge 835903440 951273753 38335358 952412539 835903439 951261273 798619041 25518786#0 952091981#0 952091981#1 952091981#2 798619040#0 798619040#1 955081907 833559124 797744599#0-AddedOnRampEdge 797744599#0 797744599#1 797744599#2 797744598#0 -49090156#2 -49090156#1 303691149#0 303691149#1 303691149#2 -91022469#3"/>
    </vehicle>
    <vehicle id="63" depart="63.00">
        <route edges="-125947334#2 -125947334#1 179213196 797744599#2 797744598#0 -49090156#2 -49090156#1 303691152 -125813713#4 -125813713#3 -125813713#1 -125813713#0 125812396 849657197 938547224 987501982 125813714 987501980 251407886 49234817 999254353 999254365#1 999254365#2 38691897 251407889#0 -183715367 -38606812#10 959017279"/>
    </vehicle>
    <vehicle id="64" depart="64.00">
        <route edges="951261274#0 951261274#1 951261274#2 -90746191#1 -90746191#0 -90746190#3 -90746190#1 90746163#0"/>
    </vehicle>
    <vehicle id="65" depart="65.00">
        <route edges="-90746191#0 -90746190#3 -90746190#1 90746163#0 90746163#1 951261275 -655740449#11 -655740449#10 -655740449#9 -655740449#8 -655740449#7 -655740449#6 -655740449#5 -655740449#4 -655740449#3 -655740449#2 -655740449#1 -655740449#0 -987459776 -25562201#16 -25562201#15 -25562201#14 -25562201#13 -25562201#12 -25562201#11 -25562201#10 -25562201#9 -25562201#8 -25562201#7 -25562201#6 -25562201#4 -25562201#3"/>
    </vehicle>
    <vehicle id="66" depart="66.00">
        <route edges="951261273 798619041 25518786#0 952091981#0 952091981#1 952091981#2 798619040#0 798619040#1 955081907 833559124 797744599#0-AddedOnRampEdge 797744599#0 797744599#1 797744599#2 797744598#0 -49090156#2 968690917"/>
    </vehicle>
    <vehicle id="68" depart="68.00">
        <route edges="-25562204#1 38606678 25562201#0 25562201#1 25562201#2 25562201#3 25562201#4 25562201#6 25562201#7 25562201#8 25562201#9 25562201#10 25562201#11 25562201#12 25562201#13 25562201#14 25562201#15 25562201#16 987459776 655740449#0 655740449#1 655740449#2"/>
    </vehicle>
    <vehicle id="69" depart="69.00">
        <route edges="655740451#0 655740451#1 951261278#0 91022463#0 951261275 -655740449#11 -655740449#10 -655740449#9 -655740449#8 -655740449#7 -655740449#6 -655740449#5 -655740449#4 -655740449#3 -655740449#2 -655740449#1 -655740449#0 -987459776 -25562201#16 -25562201#15 -25562201#14 -25562201#13 -25562201#12 -25562201#11 -25562201#10 -25562201#9 -25562201#8 -25562201#7 -25562201#6 -25562201#4 -25562201#3 -25562201#2 -25562201#1 -38606677"/>
    </vehicle>
    <vehicle id="70" depart="70.00">
        <route edges="255284172 797744594 255284173#0-AddedOnRampEdge 255284173#0 952102354#0 952102354#4 835914650#0 835914650#1 1009472079 1009472078#0 253550686#0 253550686#0-AddedOffRampEdge 253550686#2 253550686#3 955376375#0 373794020#0 373794020#4 655740448#0 655740447 25562201#0 25562201#1 25562201#2 25562201#3 25562201#4 25562201#6 25562201#7 25562201#8 25562201#9 25562201#10 25562201#11 25562201#12 25562201#13 25562201#14 25562201#15 25562201#16 987459776 655740449#0 655740449#1 655740449#2 655740449#3 655740449#4 655740449#5 655740449#6 655740449#7 655740449#8 655740449#9 655740449#10 -25562205 25562204#26"/>
    </vehicle>
    <vehicle id="71" depart="71.00">