<?xml version="1.0" encoding="UTF-8"?>

<!-- generated on 2024-06-28 16:53:57.428771 by generateContinuousRerouters.py v1_18_0+0000-03ecfdea036
  options: -n .\osm.net.xml.gz -o reroute2.add.xml -e 999999999
-->

<additional xmlns:xsi="http://www.w3.org/2001/XMLSchema-instance" xsi:noNamespaceSchemaLocation="http://sumo.dlr.de/xsd/additional_file.xsd">
    <route id="1009472075_-1009472075" edges="1009472075 -1009472075 -90746162"/>
    <route id="1009472075_951261274#2" edges="1009472075 951261274#2"/>
    <rerouter id="rr_1009472075" edges="1009472075">
        <interval begin="0" end="999999999">
            <routeProbReroute id="1009472075_-1009472075" probability="0"/>
            <routeProbReroute id="1009472075_951261274#2" probability="30.0"/>
        </interval>
    </rerouter>
    <route id="951261274#1_-1009472075" edges="951261274#1 -1009472075 -90746162"/>
    <route id="951261274#1_951261274#2" edges="951261274#1 951261274#2"/>
    <rerouter id="rr_951261274#1" edges="951261274#1">
        <interval begin="0" end="999999999">
            <routeProbReroute id="951261274#1_-1009472075" probability="30.0"/>
            <routeProbReroute id="951261274#1_951261274#2" probability="50.0"/>
        </interval>
    </rerouter>
    <route id="-1009472075_-90746162" edges="-1009472075 -90746162"/>
    <route id="90746162_1009472075" edges="90746162 1009472075"/>
    <route id="-101103849_101103849" edges="-101103849 101103849 -101103849"/>
    <route id="-101103849_25479947#1" edges="-101103849 25479947#1 952386531#0 179213209#0 794526579 955370070#0"/>
    <rerouter id="rr_-101103849" edges="-101103849">
        <interval begin="0" end="999999999">
            <routeProbReroute id="-101103849_101103849" probability="0"/>
            <routeProbReroute id="-101103849_25479947#1" probability="30.0"/>
        </interval>
    </rerouter>
    <route id="25479947#0_101103849" edges="25479947#0 101103849 -101103849"/>
    <route id="25479947#0_25479947#1" edges="25479947#0 25479947#1 952386531#0 179213209#0 794526579 955370070#0"/>
    <rerouter id="rr_25479947#0" edges="25479947#0">
        <interval begin="0" end="999999999">
            <routeProbReroute id="25479947#0_101103849" probability="30.0"/>
            <routeProbReroute id="25479947#0_25479947#1" probability="50.0"/>
        </interval>
    </rerouter>
    <route id="-972943393_-1049729600" edges="-972943393 -1049729600"/>
    <route id="-972943393_-290734563#3" edges="-972943393 -290734563#3"/>
    <route id="-972943393_972943393" edges="-972943393 972943393"/>
    <rerouter id="rr_-972943393" edges="-972943393">
        <interval begin="0" end="999999999">
            <routeProbReroute id="-972943393_-1049729600" probability="20.0"/>
            <routeProbReroute id="-972943393_-290734563#3" probability="50.0"/>
            <routeProbReroute id="-972943393_972943393" probability="0"/>
        </interval>
    </rerouter>
    <route id="290734563#3_-1049729600" edges="290734563#3 -1049729600"/>
    <route id="290734563#3_-290734563#3" edges="290734563#3 -290734563#3"/>
    <route id="290734563#3_972943393" edges="290734563#3 972943393"/>
    <rerouter id="rr_290734563#3" edges="290734563#3">
        <interval begin="0" end="999999999">
            <routeProbReroute id="290734563#3_-1049729600" probability="30.0"/>
            <routeProbReroute id="290734563#3_-290734563#3" probability="0"/>
            <routeProbReroute id="290734563#3_972943393" probability="50.0"/>
        </interval>
    </rerouter>
    <route id="956961873#0_-1049729600" edges="956961873#0 -1049729600"/>
    <route id="956961873#0_-290734563#3" edges="956961873#0 -290734563#3"/>
    <route id="956961873#0_972943393" edges="956961873#0 972943393"/>
    <rerouter id="rr_956961873#0" edges="956961873#0">
        <interval begin="0" end="999999999">
            <routeProbReroute id="956961873#0_-1049729600" probability="0"/>
            <routeProbReroute id="956961873#0_-290734563#3" probability="20.0"/>
            <routeProbReroute id="956961873#0_972943393" probability="30.0"/>
        </interval>
    </rerouter>
    <route id="-1049729600_-25562213#1" edges="-1049729600 -25562213#1"/>
    <route id="-1049729600_-90746167#3" edges="-1049729600 -90746167#3"/>
    <route id="-1049729600_956961871" edges="-1049729600 956961871"/>
    <route id="-1049729600_956961873#0" edges="-1049729600 956961873#0"/>
    <rerouter id="rr_-1049729600" edges="-1049729600">
        <interval begin="0" end="999999999">
            <routeProbReroute id="-1049729600_-25562213#1" probability="20.0"/>
            <routeProbReroute id="-1049729600_-90746167#3" probability="50.0"/>
            <routeProbReroute id="-1049729600_956961871" probability="30.0"/>
            <routeProbReroute id="-1049729600_956961873#0" probability="0"/>
        </interval>
    </rerouter>
    <route id="-999254366_-25562213#1" edges="-999254366 -25562213#1"/>
    <route id="-999254366_-90746167#3" edges="-999254366 -90746167#3"/>
    <route id="-999254366_956961871" edges="-999254366 956961871"/>
    <route id="-999254366_956961873#0" edges="-999254366 956961873#0"/>
    <rerouter id="rr_-999254366" edges="-999254366">
        <interval begin="0" end="999999999">
            <routeProbReroute id="-999254366_-25562213#1" probability="50.0"/>
            <routeProbReroute id="-999254366_-90746167#3" probability="30.0"/>
            <routeProbReroute id="-999254366_956961871" probability="0"/>
            <routeProbReroute id="-999254366_956961873#0" probability="20.0"/>
        </interval>
    </rerouter>
    <route id="25562213#1_-25562213#1" edges="25562213#1 -25562213#1"/>
    <route id="25562213#1_-90746167#3" edges="25562213#1 -90746167#3"/>
    <route id="25562213#1_956961871" edges="25562213#1 956961871"/>
    <route id="25562213#1_956961873#0" edges="25562213#1 956961873#0"/>
    <rerouter id="rr_25562213#1" edges="25562213#1">
        <interval begin="0" end="999999999">
            <routeProbReroute id="25562213#1_-25562213#1" probability="0"/>
            <routeProbReroute id="25562213#1_-90746167#3" probability="20.0"/>
            <routeProbReroute id="25562213#1_956961871" probability="50.0"/>
            <routeProbReroute id="25562213#1_956961873#0" probability="30.0"/>
        </interval>
    </rerouter>
    <route id="90746167#3_-25562213#1" edges="90746167#3 -25562213#1"/>
    <route id="90746167#3_956961871" edges="90746167#3 956961871"/>
    <route id="90746167#3_956961873#0" edges="90746167#3 956961873#0"/>
    <rerouter id="rr_90746167#3" edges="90746167#3">
        <interval begin="0" end="999999999">
            <routeProbReroute id="90746167#3_-25562213#1" probability="30.0"/>
            <routeProbReroute id="90746167#3_956961871" probability="20.0"/>
            <routeProbReroute id="90746167#3_956961873#0" probability="50.0"/>
        </interval>
    </rerouter>
    <route id="-968690916#0_-1176089184" edges="-968690916#0 -1176089184"/>
    <route id="-968690916#0_-968690916#1" edges="-968690916#0 -968690916#1 -968690916#0"/>
    <route id="-968690916#0_968690916#0" edges="-968690916#0 968690916#0 968690916#1"/>
    <rerouter id="rr_-968690916#0" edges="-968690916#0">
        <interval begin="0" end="999999999">
            <routeProbReroute id="-968690916#0_-1176089184" probability="50.0"/>
            <routeProbReroute id="-968690916#0_-968690916#1" probability="20.0"/>
            <routeProbReroute id="-968690916#0_968690916#0" probability="0"/>
        </interval>
    </rerouter>
    <route id="968690915#1_-1176089184" edges="968690915#1 -1176089184"/>
    <route id="968690915#1_-968690916#1" edges="968690915#1 -968690916#1 -968690916#0"/>
    <route id="968690915#1_968690916#0" edges="968690915#1 968690916#0 968690916#1"/>
    <rerouter id="rr_968690915#1" edges="968690915#1">
        <interval begin="0" end="999999999">
            <routeProbReroute id="968690915#1_-1176089184" probability="0"/>
            <routeProbReroute id="968690915#1_-968690916#1" probability="30.0"/>
            <routeProbReroute id="968690915#1_968690916#0" probability="50.0"/>
        </interval>
    </rerouter>
    <route id="968690916#1_-1176089184" edges="968690916#1 -1176089184"/>
    <route id="968690916#1_-968690916#1" edges="968690916#1 -968690916#1 -968690916#0"/>
    <route id="968690916#1_968690916#0" edges="968690916#1 968690916#0 968690916#1"/>
    <rerouter id="rr_968690916#1" edges="968690916#1">
        <interval begin="0" end="999999999">
            <routeProbReroute id="968690916#1_-1176089184" probability="20.0"/>
            <routeProbReroute id="968690916#1_-968690916#1" probability="0"/>
            <routeProbReroute id="968690916#1_968690916#0" probability="30.0"/>
        </interval>
    </rerouter>
    <route id="-1176089184_-49090156#2" edges="-1176089184 -49090156#2"/>
    <route id="-1176089184_49090156#3" edges="-1176089184 49090156#3 -49090156#3"/>
    <route id="-1176089184_797744598#1" edges="-1176089184 797744598#1"/>
    <route id="-1176089184_968690915#1" edges="-1176089184 968690915#1"/>
    <rerouter id="rr_-1176089184" edges="-1176089184">
        <interval begin="0" end="999999999">
            <routeProbReroute id="-1176089184_-49090156#2" probability="20.0"/>
            <routeProbReroute id="-1176089184_49090156#3" probability="30.0"/>
            <routeProbReroute id="-1176089184_797744598#1" probability="20.0"/>
            <routeProbReroute id="-1176089184_968690915#1" probability="0"/>
        </interval>
    </rerouter>
    <route id="-49090156#3_-49090156#2" edges="-49090156#3 -49090156#2"/>
    <route id="-49090156#3_797744598#1" edges="-49090156#3 797744598#1"/>
    <route id="-49090156#3_968690915#1" edges="-49090156#3 968690915#1"/>
    <rerouter id="rr_-49090156#3" edges="-49090156#3">
        <interval begin="0" end="999999999">
            <routeProbReroute id="-49090156#3_-49090156#2" probability="50.0"/>
            <routeProbReroute id="-49090156#3_797744598#1" probability="50.0"/>
            <routeProbReroute id="-49090156#3_968690915#1" probability="20.0"/>
        </interval>
    </rerouter>
    <route id="49090156#2_-49090156#2" edges="49090156#2 -49090156#2"/>
    <route id="49090156#2_49090156#3" edges="49090156#2 49090156#3 -49090156#3"/>
    <route id="49090156#2_797744598#1" edges="49090156#2 797744598#1"/>
    <route id="49090156#2_968690915#1" edges="49090156#2 968690915#1"/>
    <rerouter id="rr_49090156#2" edges="49090156#2">
        <interval begin="0" end="999999999">
            <routeProbReroute id="49090156#2_-49090156#2" probability="0"/>
            <routeProbReroute id="49090156#2_49090156#3" probability="50.0"/>
            <routeProbReroute id="49090156#2_797744598#1" probability="20.0"/>
            <routeProbReroute id="49090156#2_968690915#1" probability="30.0"/>
        </interval>
    </rerouter>
    <route id="797744598#0_-49090156#2" edges="797744598#0 -49090156#2"/>
    <route id="797744598#0_49090156#3" edges="797744598#0 49090156#3 -49090156#3"/>
    <route id="797744598#0_797744598#1" edges="797744598#0 797744598#1"/>
    <route id="797744598#0_968690915#1" edges="797744598#0 968690915#1"/>
    <rerouter id="rr_797744598#0" edges="797744598#0">
        <interval begin="0" end="999999999">
            <routeProbReroute id="797744598#0_-49090156#2" probability="50.0"/>
            <routeProbReroute id="797744598#0_49090156#3" probability="20.0"/>
            <routeProbReroute id="797744598#0_797744598#1" probability="50.0"/>
            <routeProbReroute id="797744598#0_968690915#1" probability="20.0"/>
        </interval>
    </rerouter>
    <route id="-38697612#1_-125807796" edges="-38697612#1 -125807796"/>
    <route id="-38697612#1_-38697612#0" edges="-38697612#1 -38697612#0"/>
    <route id="-38697612#1_38697612#1" edges="-38697612#1 38697612#1"/>
    <rerouter id="rr_-38697612#1" edges="-38697612#1">
        <interval begin="0" end="999999999">
            <routeProbReroute id="-38697612#1_-125807796" probability="30.0"/>
            <routeProbReroute id="-38697612#1_-38697612#0" probability="50.0"/>
            <routeProbReroute id="-38697612#1_38697612#1" probability="0"/>
        </interval>
    </rerouter>
    <route id="125807796_-125807796" edges="125807796 -125807796"/>
    <route id="125807796_-38697612#0" edges="125807796 -38697612#0"/>
    <route id="125807796_38697612#1" edges="125807796 38697612#1"/>
    <rerouter id="rr_125807796" edges="125807796">
        <interval begin="0" end="999999999">
            <routeProbReroute id="125807796_-125807796" probability="0"/>
            <routeProbReroute id="125807796_-38697612#0" probability="30.0"/>
            <routeProbReroute id="125807796_38697612#1" probability="20.0"/>
        </interval>
    </rerouter>
    <route id="38697612#0_-125807796" edges="38697612#0 -125807796"/>
    <route id="38697612#0_-38697612#0" edges="38697612#0 -38697612#0"/>
    <route id="38697612#0_38697612#1" edges="38697612#0 38697612#1"/>
    <rerouter id="rr_38697612#0" edges="38697612#0">
        <interval begin="0" end="999999999">
            <routeProbReroute id="38697612#0_-125807796" probability="20.0"/>
            <routeProbReroute id="38697612#0_-38697612#0" probability="0"/>
            <routeProbReroute id="38697612#0_38697612#1" probability="50.0"/>
        </interval>
    </rerouter>
    <route id="-125807796_-38691675#1" edges="-125807796 -38691675#1"/>
    <route id="-125807796_125807796" edges="-125807796 125807796"/>
    <route id="-125807796_38691675#2" edges="-125807796 38691675#2"/>
    <rerouter id="rr_-125807796" edges="-125807796">
        <interval begin="0" end="999999999">
            <routeProbReroute id="-125807796_-38691675#1" probability="30.0"/>
            <routeProbReroute id="-125807796_125807796" probability="0"/>
            <routeProbReroute id="-125807796_38691675#2" probability="20.0"/>
        </interval>
    </rerouter>
    <route id="-38691675#2_-38691675#1" edges="-38691675#2 -38691675#1"/>
    <route id="-38691675#2_125807796" edges="-38691675#2 125807796"/>
    <route id="-38691675#2_38691675#2" edges="-38691675#2 38691675#2"/>
    <rerouter id="rr_-38691675#2" edges="-38691675#2">
        <interval begin="0" end="999999999">
            <routeProbReroute id="-38691675#2_-38691675#1" probability="50.0"/>
            <routeProbReroute id="-38691675#2_125807796" probability="30.0"/>
            <routeProbReroute id="-38691675#2_38691675#2" probability="0"/>
        </interval>
    </rerouter>
    <route id="38691675#1_-38691675#1" edges="38691675#1 -38691675#1"/>
    <route id="38691675#1_125807796" edges="38691675#1 125807796"/>
    <route id="38691675#1_38691675#2" edges="38691675#1 38691675#2"/>
    <rerouter id="rr_38691675#1" edges="38691675#1">
        <interval begin="0" end="999999999">
            <routeProbReroute id="38691675#1_-38691675#1" probability="0"/>
            <routeProbReroute id="38691675#1_125807796" probability="20.0"/>
            <routeProbReroute id="38691675#1_38691675#2" probability="50.0"/>
        </interval>
    </rerouter>
    <route id="-125813713#1_-125813713#0" edges="-125813713#1 -125813713#0"/>
    <route id="-125813713#1_125813713#1" edges="-125813713#1 125813713#1"/>
    <rerouter id="rr_-125813713#1" edges="-125813713#1">
        <interval begin="0" end="999999999">
            <routeProbReroute id="-125813713#1_-125813713#0" probability="50.0"/>
            <routeProbReroute id="-125813713#1_125813713#1" probability="0"/>
        </interval>
    </rerouter>
    <route id="125813713#0_-125813713#0" edges="125813713#0 -125813713#0"/>
    <route id="125813713#0_125813713#1" edges="125813713#0 125813713#1"/>
    <rerouter id="rr_125813713#0" edges="125813713#0">
        <interval begin="0" end="999999999">
            <routeProbReroute id="125813713#0_-125813713#0" probability="0"/>
            <routeProbReroute id="125813713#0_125813713#1" probability="50.0"/>
        </interval>
    </rerouter>
    <route id="49234814#1_-125813713#0" edges="49234814#1 -125813713#0"/>
    <route id="49234814#1_125813713#1" edges="49234814#1 125813713#1"/>
    <rerouter id="rr_49234814#1" edges="49234814#1">
        <interval begin="0" end="999999999">
            <routeProbReroute id="49234814#1_-125813713#0" probability="50.0"/>
            <routeProbReroute id="49234814#1_125813713#1" probability="20.0"/>
        </interval>
    </rerouter>
    <route id="-125813713#0_125812396" edges="-125813713#0 125812396 849657197"/>
    <route id="-125813713#0_125813713#0" edges="-125813713#0 125813713#0"/>
    <rerouter id="rr_-125813713#0" edges="-125813713#0">
        <interval begin="0" end="999999999">
            <routeProbReroute id="-125813713#0_125812396" probability="50.0"/>
            <routeProbReroute id="-125813713#0_125813713#0" probability="0"/>
        </interval>
    </rerouter>
    <route id="833559126_125812396" edges="833559126 125812396 849657197"/>
    <route id="833559126_125813713#0" edges="833559126 125813713#0"/>
    <rerouter id="rr_833559126" edges="833559126">
        <interval begin="0" end="999999999">
            <routeProbReroute id="833559126_125812396" probability="20.0"/>
            <routeProbReroute id="833559126_125813713#0" probability="50.0"/>
        </interval>
    </rerouter>
    <route id="-125813713#3_-125813713#1" edges="-125813713#3 -125813713#1"/>
    <route id="-125813713#3_-125813719" edges="-125813713#3 -125813719"/>
    <route id="-125813713#3_125813713#3" edges="-125813713#3 125813713#3"/>
    <route id="-125813713#3_49234814#1" edges="-125813713#3 49234814#1"/>
    <rerouter id="rr_-125813713#3" edges="-125813713#3">
        <interval begin="0" end="999999999">
            <routeProbReroute id="-125813713#3_-125813713#1" probability="50.0"/>
            <routeProbReroute id="-125813713#3_-125813719" probability="30.0"/>
            <routeProbReroute id="-125813713#3_125813713#3" probability="0"/>
            <routeProbReroute id="-125813713#3_49234814#1" probability="20.0"/>
        </interval>
    </rerouter>
    <route id="125813713#1_-125813713#1" edges="125813713#1 -125813713#1"/>
    <route id="125813713#1_-125813719" edges="125813713#1 -125813719"/>
    <route id="125813713#1_125813713#3" edges="125813713#1 125813713#3"/>
    <route id="125813713#1_49234814#1" edges="125813713#1 49234814#1"/>
    <rerouter id="rr_125813713#1" edges="125813713#1">
        <interval begin="0" end="999999999">
            <routeProbReroute id="125813713#1_-125813713#1" probability="0"/>
            <routeProbReroute id="125813713#1_-125813719" probability="20.0"/>
            <routeProbReroute id="125813713#1_125813713#3" probability="50.0"/>
            <routeProbReroute id="125813713#1_49234814#1" probability="30.0"/>
        </interval>
    </rerouter>
    <route id="125813719_-125813713#1" edges="125813719 -125813713#1"/>
    <route id="125813719_-125813719" edges="125813719 -125813719"/>
    <route id="125813719_125813713#3" edges="125813719 125813713#3"/>
    <route id="125813719_49234814#1" edges="125813719 49234814#1"/>
    <rerouter id="rr_125813719" edges="125813719">
        <interval begin="0" end="999999999">
            <routeProbReroute id="125813719_-125813713#1" probability="30.0"/>
            <routeProbReroute id="125813719_-125813719" probability="0"/>
            <routeProbReroute id="125813719_125813713#3" probability="20.0"/>
            <routeProbReroute id="125813719_49234814#1" probability="30.0"/>
        </interval>
    </rerouter>
    <route id="49234813#0_-125813713#1" edges="49234813#0 -125813713#1"/>
    <route id="49234813#0_-125813719" edges="49234813#0 -125813719"/>
    <route id="49234813#0_125813713#3" edges="49234813#0 125813713#3"/>
    <route id="49234813#0_49234814#1" edges="49234813#0 49234814#1"/>
    <rerouter id="rr_49234813#0" edges="49234813#0">
        <interval begin="0" end="999999999">
            <routeProbReroute id="49234813#0_-125813713#1" probability="20.0"/>
            <routeProbReroute id="49234813#0_-125813719" probability="50.0"/>
            <routeProbReroute id="49234813#0_125813713#3" probability="30.0"/>
            <routeProbReroute id="49234813#0_49234814#1" probability="20.0"/>
        </interval>
    </rerouter>
    <route id="-125813713#4_-125813713#3" edges="-125813713#4 -125813713#3"/>
    <route id="-125813713#4_125813713#4" edges="-125813713#4 125813713#4"/>
    <route id="-125813713#4_49234813#0" edges="-125813713#4 49234813#0"/>
    <rerouter id="rr_-125813713#4" edges="-125813713#4">
        <interval begin="0" end="999999999">
            <routeProbReroute id="-125813713#4_-125813713#3" probability="50.0"/>
            <routeProbReroute id="-125813713#4_125813713#4" probability="0"/>
            <routeProbReroute id="-125813713#4_49234813#0" probability="30.0"/>
        </interval>
    </rerouter>
    <route id="125813713#3_-125813713#3" edges="125813713#3 -125813713#3"/>
    <route id="125813713#3_125813713#4" edges="125813713#3 125813713#4"/>
    <route id="125813713#3_49234813#0" edges="125813713#3 49234813#0"/>
    <rerouter id="rr_125813713#3" edges="125813713#3">
        <interval begin="0" end="999999999">
            <routeProbReroute id="125813713#3_-125813713#3" probability="0"/>
            <routeProbReroute id="125813713#3_125813713#4" probability="50.0"/>
            <routeProbReroute id="125813713#3_49234813#0" probability="20.0"/>
        </interval>
    </rerouter>
    <route id="125813713#4_-125813713#4" edges="125813713#4 -125813713#4"/>
    <route id="125813713#4_303691153" edges="125813713#4 303691153"/>
    <rerouter id="rr_125813713#4" edges="125813713#4">
        <interval begin="0" end="999999999">
            <routeProbReroute id="125813713#4_-125813713#4" probability="0"/>
            <routeProbReroute id="125813713#4_303691153" probability="50.0"/>
        </interval>
    </rerouter>
    <route id="303691152_-125813713#4" edges="303691152 -125813713#4"/>
    <route id="-987501980_-125813714" edges="-987501980 -125813714"/>
    <route id="-987501980_987501980" edges="-987501980 987501980"/>
    <rerouter id="rr_-987501980" edges="-987501980">
        <interval begin="0" end="999999999">
            <routeProbReroute id="-987501980_-125813714" probability="50.0"/>
            <routeProbReroute id="-987501980_987501980" probability="0"/>
        </interval>
    </rerouter>
    <route id="125813714_-125813714" edges="125813714 -125813714"/>
    <route id="125813714_987501980" edges="125813714 987501980"/>
    <rerouter id="rr_125813714" edges="125813714">
        <interval begin="0" end="999999999">
            <routeProbReroute id="125813714_-125813714" probability="0"/>
            <routeProbReroute id="125813714_987501980" probability="50.0"/>
        </interval>
    </rerouter>
    <route id="125813716_-125813714" edges="125813716 -125813714"/>
    <route id="125813716_987501980" edges="125813716 987501980"/>
    <rerouter id="rr_125813716" edges="125813716">
        <interval begin="0" end="999999999">
            <routeProbReroute id="125813716_-125813714" probability="20.0"/>
            <routeProbReroute id="125813716_987501980" probability="30.0"/>
        </interval>
    </rerouter>
    <route id="-125813714_-987501982" edges="-125813714 -987501982"/>
    <route id="-125813714_125813714" edges="-125813714 125813714"/>
    <route id="-125813714_254304454" edges="-125813714 254304454"/>
    <rerouter id="rr_-125813714" edges="-125813714">
        <interval begin="0" end="999999999">
            <routeProbReroute id="-125813714_-987501982" probability="50.0"/>
            <routeProbReroute id="-125813714_125813714" probability="0"/>
            <routeProbReroute id="-125813714_254304454" probability="20.0"/>
        </interval>
    </rerouter>
    <route id="987501982_-987501982" edges="987501982 -987501982"/>
    <route id="987501982_125813714" edges="987501982 125813714"/>
    <route id="987501982_254304454" edges="987501982 254304454"/>
    <rerouter id="rr_987501982" edges="987501982">
        <interval begin="0" end="999999999">
            <routeProbReroute id="987501982_-987501982" probability="0"/>
            <routeProbReroute id="987501982_125813714" probability="20.0"/>
            <routeProbReroute id="987501982_254304454" probability="50.0"/>
        </interval>
    </rerouter>
    <route id="-125813719_125813719" edges="-125813719 125813719"/>
    <route id="-125813719_532063862#1" edges="-125813719 532063862#1 532063862#2"/>
    <rerouter id="rr_-125813719" edges="-125813719">
        <interval begin="0" end="999999999">
            <routeProbReroute id="-125813719_125813719" probability="0"/>
            <routeProbReroute id="-125813719_532063862#1" probability="30.0"/>
        </interval>
    </rerouter>
    <route id="532063862#2_125813719" edges="532063862#2 125813719"/>
    <route id="532063862#2_532063862#1" edges="532063862#2 532063862#1 532063862#2"/>
    <rerouter id="rr_532063862#2" edges="532063862#2">
        <interval begin="0" end="999999999">
            <routeProbReroute id="532063862#2_125813719" probability="30.0"/>
            <routeProbReroute id="532063862#2_532063862#1" probability="50.0"/>
        </interval>
    </rerouter>
    <route id="-848718052_-125814597" edges="-848718052 -125814597 -848718052"/>
    <route id="-848718052_848718052" edges="-848718052 848718052 125814597"/>
    <route id="-848718052_987501981" edges="-848718052 987501981"/>
    <rerouter id="rr_-848718052" edges="-848718052">
        <interval begin="0" end="999999999">
            <routeProbReroute id="-848718052_-125814597" probability="30.0"/>
            <routeProbReroute id="-848718052_848718052" probability="0"/>
            <routeProbReroute id="-848718052_987501981" probability="50.0"/>
        </interval>
    </rerouter>
    <route id="-987501981_-125814597" edges="-987501981 -125814597 -848718052"/>
    <route id="-987501981_848718052" edges="-987501981 848718052 125814597"/>
    <route id="-987501981_987501981" edges="-987501981 987501981"/>
    <rerouter id="rr_-987501981" edges="-987501981">
        <interval begin="0" end="999999999">
            <routeProbReroute id="-987501981_-125814597" probability="50.0"/>
            <routeProbReroute id="-987501981_848718052" probability="30.0"/>
            <routeProbReroute id="-987501981_987501981" probability="0"/>
        </interval>
    </rerouter>
    <route id="125814597_-125814597" edges="125814597 -125814597 -848718052"/>
    <route id="125814597_848718052" edges="125814597 848718052 125814597"/>
    <route id="125814597_987501981" edges="125814597 987501981"/>
    <rerouter id="rr_125814597" edges="125814597">
        <interval begin="0" end="999999999">
            <routeProbReroute id="125814597_-125814597" probability="0"/>
            <routeProbReroute id="125814597_848718052" probability="20.0"/>
            <routeProbReroute id="125814597_987501981" probability="50.0"/>
        </interval>
    </rerouter>
    <route id="-125814597_-848718052" edges="-125814597 -848718052"/>
    <route id="848718052_125814597" edges="848718052 125814597"/>
    <route id="-125947334#2_-125947334#1" edges="-125947334#2 -125947334#1"/>
    <route id="-125947334#2_-848725263" edges="-125947334#2 -848725263 -125947334#2"/>
    <route id="-125947334#2_125947334#2" edges="-125947334#2 125947334#2 848725263"/>
    <rerouter id="rr_-125947334#2" edges="-125947334#2">
        <interval begin="0" end="999999999">
            <routeProbReroute id="-125947334#2_-125947334#1" probability="50.0"/>
            <routeProbReroute id="-125947334#2_-848725263" probability="30.0"/>
            <routeProbReroute id="-125947334#2_125947334#2" probability="0"/>
        </interval>
    </rerouter>
    <route id="125947334#0_-125947334#1" edges="125947334#0 -125947334#1"/>
    <route id="125947334#0_-848725263" edges="125947334#0 -848725263 -125947334#2"/>
    <route id="125947334#0_125947334#2" edges="125947334#0 125947334#2 848725263"/>
    <rerouter id="rr_125947334#0" edges="125947334#0">
        <interval begin="0" end="999999999">
            <routeProbReroute id="125947334#0_-125947334#1" probability="0"/>
            <routeProbReroute id="125947334#0_-848725263" probability="50.0"/>
            <routeProbReroute id="125947334#0_125947334#2" probability="30.0"/>
        </interval>
    </rerouter>
    <route id="848725263_-125947334#1" edges="848725263 -125947334#1"/>
    <route id="848725263_-848725263" edges="848725263 -848725263 -125947334#2"/>
    <route id="848725263_125947334#2" edges="848725263 125947334#2 848725263"/>
    <rerouter id="rr_848725263" edges="848725263">
        <interval begin="0" end="999999999">
            <routeProbReroute id="848725263_-125947334#1" probability="50.0"/>
            <routeProbReroute id="848725263_-848725263" probability="0"/>
            <routeProbReroute id="848725263_125947334#2" probability="20.0"/>
        </interval>
    </rerouter>
    <route id="-125947334#1_125947334#0" edges="-125947334#1 125947334#0"/>
    <route id="-125947334#1_179213196" edges="-125947334#1 179213196 797744599#2"/>
    <rerouter id="rr_-125947334#1" edges="-125947334#1">
        <interval begin="0" end="999999999">
            <routeProbReroute id="-125947334#1_125947334#0" probability="0"/>
            <routeProbReroute id="-125947334#1_179213196" probability="50.0"/>
        </interval>
    </rerouter>
    <route id="49234824_125947334#0" edges="49234824 125947334#0"/>
    <route id="49234824_179213196" edges="49234824 179213196 797744599#2"/>
    <rerouter id="rr_49234824" edges="49234824">
        <interval begin="0" end="999999999">
            <routeProbReroute id="49234824_125947334#0" probability="50.0"/>
            <routeProbReroute id="49234824_179213196" probability="20.0"/>
        </interval>
    </rerouter>
    <route id="-848725263_-125947334#2" edges="-848725263 -125947334#2"/>